
.subckt DESIGN_icn_ckt 1 2 
* Display all elements first 
TidlPart_27 2 0 1 0 z0=60 Td=5e-010 R=1e-5 
.ends DESIGN_icn_ckt
